*** LETAGROP - (from Fortran to Java)
*** MODFKN (Model Functions) April 1986                   (I.Puigdomenech)
Input file: "Test_files\inputTest.dat"
Output file: "Test_files\inputTest.out"
                                                          2020-10-19 09:07:33


File to test input to Letagrop-ModFnk



* * * * * * * * * * * * * * * * * * * * * * * * * * * * * * * * * * * *


*** RURIK= 9
TYP=1
VAL=1

3 sets of data, 2 common parameter "ag", no group parameters,

each experimental point has 7 values (Y, X1, X2, X3, X4, X5, X6)


*** RURIK= 6
 # SETS OF EXP. POINTS, NS=3
 # COMMON CONSTANTS, NAG=2
 # SET-CONSTANTS, NAS=0
 # EXP. QUANTITIES, NAP=7
COMMON CONSTANTS: AG=
    2.00000
    298.150
    SET #1,  MATRIX OF 3 EXP. POINTS
         Y           X ...
   1.110e-05       1.110       2.110       3.110       4.110       5.110       6.110
   2.210e-05       2.210       2.210       3.210       4.210       5.210       6.210
   3.310e-05       3.310       2.310       3.310       4.310       5.310       6.310
    SET #2,  MATRIX OF 2 EXP. POINTS
         Y           X ...
   1.120e-05       1.120       2.120       3.120       4.120       5.120       6.120
   2.220e-05       2.220       2.220       3.220       4.220       5.220       6.220
    SET #3,  MATRIX OF 1 EXP. POINTS
         Y           X ...
   1.130e-05       1.130       2.130       3.130       4.130       5.130       6.130
SETS 1 - 3   6 POINTS; MAX. AP(42)

Rurik 7: 2 common parameters (K), zero AK;

3 group parameters for each data set. (zero twist)


*** RURIK= 7
(NEW PROBLEM: resetting adjustable common parameters)
(NEW PROBLEM: resetting adjustable group parameters)

K(IK)=
K 1=     1.11100   SIGMA=     -1.000
K 2=     2.22200   SIGMA=     -1.000

SET 1

KS 1=      1.1000   SIGMA=     -1.00     KS 2=      1.2000   SIGMA=     -1.00
KS 3=      1.3000   SIGMA=     -1.00     

SET 2

KS 1=      2.1000   SIGMA=     -1.00     KS 2=      2.2000   SIGMA=     -1.00
KS 3=      2.3000   SIGMA=     -1.00     

SET 3

KS 1=      3.1000   SIGMA=     -1.00     KS 2=      3.2000   SIGMA=     -1.00
KS 3=      3.3000   SIGMA=     -1.00     

 - - - - - - - - - - - - - - - - - - - - - - - - - - - - - - - - - - - - - - -

*** RURIK= 2

 - - - - - - - - - - - - - - - - - - - - - - - - - - - - - - - - - - - - - - -

          PRINT-OUT (UTTAG)

Error = Ycalc - Y
      X1         X2         X3         X4         X5         X6         Y        Y-calc      Error
      1.110      2.110      3.110      4.110      5.110      6.110  1.110e-05      3.577      3.577
      2.210      2.210      3.210      4.210      5.210      6.210  2.210e-05      6.022      6.022
      3.310      2.310      3.310      4.310      5.310      6.310  3.310e-05      8.466      8.466

Error = Ycalc - Y
      X1         X2         X3         X4         X5         X6         Y        Y-calc      Error
      1.120      2.120      3.120      4.120      5.120      6.120  1.120e-05      3.600      3.600
      2.220      2.220      3.220      4.220      5.220      6.220  2.220e-05      6.044      6.044

Error = Ycalc - Y
      X1         X2         X3         X4         X5         X6         Y        Y-calc      Error
      1.130      2.130      3.130      4.130      5.130      6.130  1.130e-05      3.622      3.622

U=    183.3299

Rurik 7: 1 common parameters (K), zero AK;

3 group parameters, the 2nd one is changed in each data set. (zero twist)


*** RURIK= 7

K(IK)=
K 1=     2.22200   SIGMA=     -1.000

SET 1

KS 1=      1.1000   SIGMA=     -1.00     KS 2=      10.110   SIGMA=     -1.00
KS 3=      1.3000   SIGMA=     -1.00     

SET 2

KS 1=      2.1000   SIGMA=     -1.00     KS 2=      10.220   SIGMA=     -1.00
KS 3=      2.3000   SIGMA=     -1.00     

SET 3

KS 1=      3.1000   SIGMA=     -1.00     KS 2=      10.330   SIGMA=     -1.00
KS 3=      3.3000   SIGMA=     -1.00     

 - - - - - - - - - - - - - - - - - - - - - - - - - - - - - - - - - - - - - - -

*** RURIK= 2

 - - - - - - - - - - - - - - - - - - - - - - - - - - - - - - - - - - - - - - -

          PRINT-OUT (UTTAG)

Error = Ycalc - Y
      X1         X2         X3         X4         X5         X6         Y        Y-calc      Error
      1.110      2.110      3.110      4.110      5.110      6.110  1.110e-05      4.688      4.688
      2.210      2.210      3.210      4.210      5.210      6.210  2.210e-05      7.133      7.133
      3.310      2.310      3.310      4.310      5.310      6.310  3.310e-05      9.577      9.577

Error = Ycalc - Y
      X1         X2         X3         X4         X5         X6         Y        Y-calc      Error
      1.120      2.120      3.120      4.120      5.120      6.120  1.120e-05      4.711      4.711
      2.220      2.220      3.220      4.220      5.220      6.220  2.220e-05      7.155      7.155

Error = Ycalc - Y
      X1         X2         X3         X4         X5         X6         Y        Y-calc      Error
      1.130      2.130      3.130      4.130      5.130      6.130  1.130e-05      4.733      4.733

U=    260.3513

Rurik 7: 1 common parameters (K), zero AK;

3 group parameters, two (1st and 2nd) are set to zero. (zero twist)


*** RURIK= 7

K(IK)=
K 1=     3.33300   SIGMA=     -1.000

SET 1

KS 1=      0.0000   SIGMA=     -1.00     KS 2=      0.0000   SIGMA=     -1.00
KS 3=      1.3000   SIGMA=     -1.00     

SET 2

KS 1=      0.0000   SIGMA=     -1.00     KS 2=      0.0000   SIGMA=     -1.00
KS 3=      2.3000   SIGMA=     -1.00     

SET 3

KS 1=      0.0000   SIGMA=     -1.00     KS 2=      0.0000   SIGMA=     -1.00
KS 3=      3.3000   SIGMA=     -1.00     

 - - - - - - - - - - - - - - - - - - - - - - - - - - - - - - - - - - - - - - -


Rurik 7: 1 common parameters (K), zero AK;

3 group parameters, all are set to zero except two (2nd and 3rd) which are provided.

(zero twist)


*** RURIK= 7

K(IK)=
K 1=     4.44400   SIGMA=     -1.000

SET 1

KS 1=      0.0000   SIGMA=     -1.00     KS 2=      10.200   SIGMA=     -1.00
KS 3=      10.300   SIGMA=     -1.00     

SET 2

KS 1=      0.0000   SIGMA=     -1.00     KS 2=      20.200   SIGMA=     -1.00
KS 3=      20.300   SIGMA=     -1.00     

SET 3

KS 1=      0.0000   SIGMA=     -1.00     KS 2=      30.300   SIGMA=     -1.00
KS 3=      30.300   SIGMA=     -1.00     

 - - - - - - - - - - - - - - - - - - - - - - - - - - - - - - - - - - - - - - -

*** RURIK= 2

 - - - - - - - - - - - - - - - - - - - - - - - - - - - - - - - - - - - - - - -

          PRINT-OUT (UTTAG)

Error = Ycalc - Y
      X1         X2         X3         X4         X5         X6         Y        Y-calc      Error
      1.110      2.110      3.110      4.110      5.110      6.110  1.110e-05      6.910      6.910
      2.210      2.210      3.210      4.210      5.210      6.210  2.210e-05      9.355      9.355
      3.310      2.310      3.310      4.310      5.310      6.310  3.310e-05      11.80      11.80

Error = Ycalc - Y
      X1         X2         X3         X4         X5         X6         Y        Y-calc      Error
      1.120      2.120      3.120      4.120      5.120      6.120  1.120e-05      6.933      6.933
      2.220      2.220      3.220      4.220      5.220      6.220  2.220e-05      9.377      9.377

Error = Ycalc - Y
      X1         X2         X3         X4         X5         X6         Y        Y-calc      Error
      1.130      2.130      3.130      4.130      5.130      6.130  1.130e-05      6.955      6.955

U=    458.8296

1 data set, 0 common parameters "ag", 3 group parameters (as)

each experimental point has 3 values (Y, X1, X2)


*** RURIK= 6
 # SETS OF EXP. POINTS, NS=1
 # COMMON CONSTANTS, NAG=0
 # SET-CONSTANTS, NAS=3
 # EXP. QUANTITIES, NAP=3
    SET #1,  MATRIX OF 2 EXP. POINTS
  SET-CONSTANTS:  AS=
          45.30       4.530      0.4530
         Y           X ...
   1.119e-05       1.219       1.319
   2.119e-05       2.219       2.319
SETS 1 - 1   2 POINTS; MAX. AP(6)

Rurik 7: 2 common parameters (K), three AK;

zero group parameters. (zero twist)


*** RURIK= 7

K(IK)=
K 1=     5.55500   SIGMA=     -1.000   AK= -1.00 -1.00  1.00
K 2=     6.66600   SIGMA=     -1.000   AK= -2.00 -2.00  2.00

 - - - - - - - - - - - - - - - - - - - - - - - - - - - - - - - - - - - - - - -

*** RURIK= 15
LOG K 0 =  -0.2553 WITHOUT SIGMA
LOG K 1 =  -1.1761 WITHOUT SIGMA
*** RURIK= 2

 - - - - - - - - - - - - - - - - - - - - - - - - - - - - - - - - - - - - - - -

          PRINT-OUT (UTTAG)

Error = Ycalc - Y
      X1         X2         Y        Y-calc      Error
      1.219      1.319  1.119e-05      13.68      13.68
      2.219      2.319  2.119e-05      20.35      20.35

U=    601.1591

Rurik 7: 3 common parameters (K), zero AK;

zero group parameters. (two twist)


*** RURIK= 7
(NEW PROBLEM: resetting adjustable common parameters)

K(IK)=
K 1=     7.77700   SIGMA=     -1.000
K 2=     8.88800   SIGMA=     -1.000
K 3=     9.99900   SIGMA=     -1.000

 - - - - - - - - - - - - - - - - - - - - - - - - - - - - - - - - - - - - - - -


Rurik 7: 3 common parameters (K), zero AK;

five group parameters, not changed. (zero twist)


*** RURIK= 7
(NEW PROBLEM: resetting adjustable group parameters)

K(IK)=
K 1=     7.77700   SIGMA=     -1.000
K 2=     8.88800   SIGMA=     -1.000
K 3=     9.99900   SIGMA=     -1.000

SET 1

KS 1=      0.0000   SIGMA=     -1.00     KS 2=      0.0000   SIGMA=     -1.00
KS 3=      0.0000   SIGMA=     -1.00     KS 4=      0.0000   SIGMA=     -1.00
KS 5=      0.0000   SIGMA=     -1.00     

 - - - - - - - - - - - - - - - - - - - - - - - - - - - - - - - - - - - - - - -


Rurik 7: The posk protection is removed for 2 of the k-parameters,

which are thus allowed to be negative.


*** RURIK= 7
*** RURIK= 2

 - - - - - - - - - - - - - - - - - - - - - - - - - - - - - - - - - - - - - - -

          PRINT-OUT (UTTAG)

Error = Ycalc - Y
      X1         X2         Y        Y-calc      Error
      1.219      1.319  1.119e-05      18.61      18.61
      2.219      2.319  2.119e-05      27.50      27.50

U=    1102.606
*** RURIK= -1
